*Heading
** Job name: Sat Model name: back
** Generated by: Abaqus/CAE 2016
*Preprint, echo=NO, model=NO, history=NO, contact=NO
**
** PARTS
**
*Part, name=PART-1
*Node
      1,  0.624750257,  0.195084244
      2,  0.659992933,  0.206407964
      3,   0.58931303,  0.184383363
      4,  0.617361069, 0.0883974209
      5,  0.660259485,  0.101415396
      6,  0.702879012,  0.115303248
      7,  0.745196998,  0.130052984
      8,  0.787199557,  0.145659074
      9,  0.828872681,  0.162115991
     10,  0.870202243,  0.179418176
     11,  0.911174297,  0.197560117
     12,  0.951774895,  0.216536269
     13,   0.99198997,  0.236341104
     14,   1.02841938,  0.257252991
     15,   1.05581975,  0.291463047
     16, 0.0464696623, 0.0672712103
     17, 0.0472802147, 0.0339648388
     18,  0.093150869, 0.0688760653
     19, 0.0946781859, 0.0355351493
     20,  0.187454984, 0.0750794038
** ... 918 like lines cut
*Element, type=CAX8R
  1,  86,  85,  83,  84, 498, 496, 495, 497
  2,   5,  86,  84,   4, 454, 497, 455, 453
  3,  82,  81,  85,  86, 490, 491, 498, 493
  4,   6,  82,  86,   5, 452, 493, 454, 451
  5,  85,   1,   3,  83, 459, 456, 457, 496
  6,  81,   2,   1,  85, 461, 458, 459, 491
  7,  65,  64,   4,  84, 347, 351, 455, 349
  8,  66,  65,  84,  83, 344, 349, 495, 346
  9,  67,  66,  83,   3, 341, 346, 457, 343
 10,  18,  16,  17,  19, 430, 431, 429, 428
 11,  47,  48,  16,  18, 380, 381, 430, 383
 12,  16,  50,  51,  17, 378, 375, 376, 431
 13,  48,  49,  50,  16, 379, 377, 378, 381
 14,  53,  54,  19,  17, 370, 371, 429, 373
 15,  52,  53,  17,  51, 372, 373, 376, 374
 16,  18,  24,  46,  47, 423, 385, 382, 383
 17,  19,  25,  24,  18, 421, 419, 423, 428
 18,  54,  55,  25,  19, 368, 369, 421, 371
 19,  22,  20,  21,  23, 426, 427, 425, 424
 20,  44,  45,  20,  22, 386, 387, 426, 389
** ... 239 like lines cut
*Elset, elset=SET-1, generate
   1,  259,    1
** Section: Section-1-SET-1
*Solid Section, elset=SET-1, material=MATERIAL-1
,
*End Part
**  
**
** ASSEMBLY
**
*Assembly, name=Assembly
**  
*Instance, name=PART-1-1, part=PART-1
*End Instance
**  
*Elset, elset=BACK, instance=PART-1-1, generate
   1,  259,    1
*Nset, nset=SET-2, instance=PART-1-1
 297, 298, 299, 300, 301, 302, 303, 304, 305, 306, 307, 866, 868, 870, 872, 874
 876, 878, 880, 882, 884
*Nset, nset=SET-3, instance=PART-1-1
   4,   5,   6,   7,   8,   9,  10,  11,  12,  13,  14,  52,  53,  54,  55,  56
  57,  58,  59,  60,  61,  62,  63,  64, 350, 351, 352, 354, 356, 358, 360, 362
 364, 366, 368, 370, 372, 435, 437, 439, 441, 443, 445, 447, 449, 451, 453
*End Assembly
*Amplitude, name=AMP-1
             0.,             10.,              3.,             1.5
** 
** MATERIALS
** 
*Material, name=MATERIAL-1
*Density
7900.,
*Elastic
 2.1e+11, 0.3
** 
** BOUNDARY CONDITIONS
** 
** Name: Disp-BC-1 Type: Displacement/Rotation
*Boundary
SET-2, 1, 1
** Name: Disp-BC-2 Type: Displacement/Rotation
*Boundary
SET-2, 2, 2
** Name: Disp-BC-3 Type: Displacement/Rotation
*Boundary
SET-2, 6, 6
** ----------------------------------------------------------------
** 
** STEP: Step-1
** 
*Step, name=Step-1, nlgeom=NO, inc=10000
*Dynamic
0.01,3.,3e-05,0.02
** 
** LOADS
** 
** Name: CFORCE-1   Type: Concentrated force
*Cload, amplitude=AMP-1
SET-3, 2, 1.
** 
** OUTPUT REQUESTS
** 
*Restart, write, frequency=0
** 
** FIELD OUTPUT: F-Output-1
** 
*Output, field, variable=PRESELECT
** 
** HISTORY OUTPUT: H-Output-1
** 
*Output, history, variable=PRESELECT
*End Step
