*Heading
** Job name: dyn Model name: CAX8R_dyn
** Generated by: Abaqus/CAE 2016
*Preprint, echo=NO, model=NO, history=NO, contact=NO
**
** PARTS
**
*Part, name=PART-1
*Node
      1,           0.,           0.
      2,         100.,           0.
      3,         100.,         100.
      4,           0.,         100.
      5,          50.,           0.
      6,         100.,          50.
      7,          50.,         100.
      8,           0.,          50.
*Element, type=CAX8R
1, 1, 2, 3, 4, 5, 6, 7, 8
*Nset, nset=SET-1, generate
 1,  8,  1
*Elset, elset=SET-1
 1,
** Section: Section-1-SET-1
*Solid Section, elset=SET-1, material=MATERIAL-1
,
*End Part
**  
**
** ASSEMBLY
**
*Assembly, name=Assembly
**  
*Instance, name=PART-1-1, part=PART-1
*End Instance
**  
*Nset, nset=SET-1, instance=PART-1-1
 3,
*Nset, nset=SET-2, instance=PART-1-1
 1,
*Nset, nset=SET-3, instance=PART-1-1
 2,
*Nset, nset=SET-4, instance=PART-1-1
 5,
*Nset, nset=SET-5, instance=PART-1-1
 4, 7
*Nset, nset=SET-6, instance=PART-1-1
 3, 4, 7
*Nset, nset=SET-7, instance=PART-1-1
 1, 2, 5
*Nset, nset=SET-8, instance=PART-1-1
 3, 4, 7
*Nset, nset=SET-9, instance=PART-1-1
 1, 2, 5
*Nset, nset=Set-10, instance=PART-1-1
 7,
*End Assembly
*Amplitude, name=AMP-1, definition=SMOOTH STEP
             0.,              1.,             0.2,              2.
** 
** MATERIALS
** 
*Material, name=MATERIAL-1
*Density
7900.,
*Elastic
 2e+11, 0.3
** ----------------------------------------------------------------
** 
** STEP: Step-1
** 
*Step, name=Step-1, nlgeom=YES
*Dynamic
0.01,1.,1e-05,0.02
** 
** BOUNDARY CONDITIONS
** 
** Name: Disp-BC-1 Type: Displacement/Rotation
*Boundary
SET-9, 1, 1
** Name: Disp-BC-2 Type: Displacement/Rotation
*Boundary
SET-9, 2, 2
** Name: Disp-BC-3 Type: Displacement/Rotation
*Boundary
SET-9, 6, 6
** 
** LOADS
** 
** Name: CFORCE-1   Type: Concentrated force
*Cload, amplitude=AMP-1
SET-8, 2, 1000.
** 
** OUTPUT REQUESTS
** 
*Restart, write, frequency=0
** 
** FIELD OUTPUT: F-Output-1
** 
*Output, field, variable=PRESELECT, frequency=1
** 
** HISTORY OUTPUT: H-Output-1
** 
*Output, history, variable=PRESELECT
*End Step
** ----------------------------------------------------------------
** 
** STEP: Step-2
** 
*Step, name=Step-2, nlgeom=YES
*Dynamic
0.1,1.,1e-05,0.1
** 
** LOADS
** 
** Name: Load-2   Type: Concentrated force
*Cload
Set-10, 2, 100.
** 
** OUTPUT REQUESTS
** 
*Restart, write, frequency=0
** 
** FIELD OUTPUT: F-Output-1
** 
*Output, field, variable=PRESELECT, frequency=1
** 
** HISTORY OUTPUT: H-Output-1
** 
*Output, history, variable=PRESELECT
*End Step
