*Heading
** Job name: CAX8R_SPHERE Model name: CAX8R_SPHERE
** Generated by: Abaqus/CAE 2016
*Preprint, echo=NO, model=NO, history=NO, contact=NO
**
** PARTS
**
*Part, name=PART-1
*Node
      1,          10.,           0.
      2,         10.5,           0.
      3,          11.,           0.
      4,         11.5,           0.
      5,          12.,           0.
      6,         12.5,           0.
      7,          13.,           0.
      8,         13.5,           0.
      9,          14.,           0.
     10,         14.5,           0.
     11,          15.,           0.
     12,         15.5,           0.
     13,          16.,           0.
     14,         16.5,           0.
     15,          17.,           0.
     16,         17.5,           0.
     17,          18.,           0.
     18,         18.5,           0.
     19,          19.,           0.
     20,         19.5,           0.
** ... 641 like lines cut
*Element, type=CAX8R
  1,   1,   3,  35,  33,   2,  23,  34,  22
  2,   3,   5,  37,  35,   4,  24,  36,  23
  3,   5,   7,  39,  37,   6,  25,  38,  24
  4,   7,   9,  41,  39,   8,  26,  40,  25
  5,   9,  11,  43,  41,  10,  27,  42,  26
  6,  11,  13,  45,  43,  12,  28,  44,  27
  7,  13,  15,  47,  45,  14,  29,  46,  28
  8,  15,  17,  49,  47,  16,  30,  48,  29
  9,  17,  19,  51,  49,  18,  31,  50,  30
 10,  19,  21,  53,  51,  20,  32,  52,  31
 11,  33,  35,  67,  65,  34,  55,  66,  54
 12,  35,  37,  69,  67,  36,  56,  68,  55
 13,  37,  39,  71,  69,  38,  57,  70,  56
 14,  39,  41,  73,  71,  40,  58,  72,  57
 15,  41,  43,  75,  73,  42,  59,  74,  58
 16,  43,  45,  77,  75,  44,  60,  76,  59
 17,  45,  47,  79,  77,  46,  61,  78,  60
 18,  47,  49,  81,  79,  48,  62,  80,  61
 19,  49,  51,  83,  81,  50,  63,  82,  62
 20,  51,  53,  85,  83,  52,  64,  84,  63
** ... 180 like lines cut
*Nset, nset=SET-1, generate
   1,  661,    1
*Elset, elset=SET-1
 1,
*Elset, elset=Set-2, generate
   1,  200,    1
** Section: Section-1-SET-1
*Solid Section, elset=Set-2, material=MATERIAL-1
,
*End Part
**  
**
** ASSEMBLY
**
*Assembly, name=Assembly
**  
*Instance, name=PART-1-1, part=PART-1
*End Instance
**  
*Nset, nset=SET-1, instance=PART-1-1
 3,
*Nset, nset=SET-2, instance=PART-1-1
 1,
*Nset, nset=SET-3, instance=PART-1-1
 2,
*Nset, nset=SET-4, instance=PART-1-1
 5,
*Nset, nset=SET-5, instance=PART-1-1
 4, 7
*Nset, nset=Set-6, instance=PART-1-1
 661,
*Nset, nset=Set-7, instance=PART-1-1
   1,   2,   3,   4,   5,   6,   7,   8,   9,  10,  11,  12,  13,  14,  15,  16
  17,  18,  19,  20,  21, 641, 642, 643, 644, 645, 646, 647, 648, 649, 650, 651
 652, 653, 654, 655, 656, 657, 658, 659, 660, 661
*Nset, nset=Set-8, instance=PART-1-1, generate
  1,  21,   1
*Nset, nset=Set-9, instance=PART-1-1, generate
 641,  661,    1
*Nset, nset=Set-10, instance=PART-1-1
  21,  32,  53,  64,  85,  96, 117, 128, 149, 160, 181, 192, 213, 224, 245, 256
 277, 288, 309, 320, 341, 352, 373, 384, 405, 416, 437, 448, 469, 480, 501, 512
 533, 544, 565, 576, 597, 608, 629, 640, 661
*Nset, nset=Set-11, instance=PART-1-1
 661,
*End Assembly
** 
** MATERIALS
** 
*Material, name=MATERIAL-1
*Elastic
 2e+11, 0.3
** ----------------------------------------------------------------
** 
** STEP: Step-1
** 
*Step, name=Step-1, nlgeom=NO
*Static
0.1, 1., 1e-05, 1.
** 
** BOUNDARY CONDITIONS
** 
** Name: BC-1 Type: Displacement/Rotation
*Boundary
Set-8, 1, 1
Set-8, 2, 2
Set-8, 6, 6
** Name: BC-2 Type: Displacement/Rotation
*Boundary
Set-9, 1, 1
** 
** LOADS
** 
** Name: CFORCE-2   Type: Concentrated force
*Cload
Set-11, 2, -1000.
** 
** OUTPUT REQUESTS
** 
*Restart, write, frequency=0
** 
** FIELD OUTPUT: F-Output-1
** 
*Output, field
*Node Output
CF, RF, U
** 
** FIELD OUTPUT: F-Output-2
** 
*Element Output, directions=YES
LE, PE, PEEQ, PEMAG, S
** 
** HISTORY OUTPUT: H-Output-1
** 
*Output, history, variable=PRESELECT
*End Step
